.MODEL 2SC4793 NPN (IS=0.1p BF=130 NF=1 ISE=0.1p RB=1 RE=0.1 RC=0.2 VAF=500 IKF=3 TF=1.6ns CJC=100p )

.MODEL 2SA1837 PNP (IS=0.1p BF=130 NF=1 ISE=0.1p RB=1 RE=0.1 RC=0.2 VAF=500 IKF=3 TF=2.28n CJC=150p )

.MODEL Q2SC5200 NPN(
+ IS=10.000E-15 BF=105 VAF=100 IKF=10.000E-3 XTB=1.5
+ BR=.1001 VAR=100 IKR=10.000E-3 ISC=10.000E-15 CJE=2.0000E-12
+ CJC=485.82E-12 MJC=.33333 TF=607.76E-12 XTF=10 VTF=10 ITF=1)


.MODEL 2SC1815 NPN (IS=9.99315F BF=192.019 NF=1.01109 VAF=311.281 IKF=214.789M
+ ISE=124.464F NE=1.51791 BR=4.99998 IKR=980.183 ISC=33.4247F RE=2.96389 CJE=2P
+ MJE=500M CJC=7.82341P VJC=700M MJC=500.188M TF=512.206P XTF=183.171M
+ VTF=9.97698 ITF=9.76409M TR=10N)

.model Q2sc2922 NPN(Is=122.9n Xti=3 Eg=1.11 Vaf=100 Bf=87.13 Ise=122.9n
+ Ne=1.677 Ikf=99.99 Nk=1.384 Xtb=1.5 Var=100 Br=1 Isc=0 Nc=2
+ Ikr=0 Rc=0 Cjc=2p Mjc=.3333 Vjc=.75 Fc=.5 Cje=5p Mje=.3333
+ Vje=.75 Tr=2.581u Tf=4.584n Itf=6.76K Xtf=42.56K Vtf=10)

.model Q2sa1216 PNP(Is=7.795p Xti=3 Eg=1.11 Vaf=100 Bf=90.76 Ise=79.57p
+ Ne=1.483 Ikf=11.97 Nk=.3815 Xtb=1.5 Var=100 Br=1 Isc=0 Nc=2
+ Ikr=0 Rc=0 Cjc=2p Mjc=.3333 Vjc=.75 Fc=.5 Cje=5p Mje=.3333
+ Vje=.75 Tr=1.39u Tf=6.323n Itf=2.833 Xtf=0 Vtf=10)

.MODEL 2SC1815G NPN (IS=81.2039P BF=130.444 NF=1.22428 VAF=251.702 IKF=1.05399
+ ISE=1.76673P NE=1.65186 BR=7.21621 IKR=16.9232M ISC=3.03555N NC=1.78127
+ RE=1.06272 RC=279.03M CJE=2P MJE=500M CJC=7.81791P VJC=700M MJC=499.93M
+ TF=1.94501N XTF=500.013M VTF=10 ITF=10.0727M TR=10N )

.MODEL 2SC1815 NPN (IS=9.99315F BF=192.019 NF=1.01109 VAF=311.281 IKF=214.789M
+ ISE=124.464F NE=1.51791 BR=4.99998 IKR=980.183 ISC=33.4247F RE=2.96389 CJE=2P
+ MJE=500M CJC=7.82341P VJC=700M MJC=500.188M TF=512.206P XTF=183.171M
+ VTF=9.97698 ITF=9.76409M TR=10N )

.MODEL 2SA1015 PNP (IS=10.0004F BF=239.283 NF=996.198M VAF=100 IKF=172.882M
+ ISE=43.1361F NE=1.44709 BR=5 IKR=961.305 ISC=121.849F RE=1.05432 CJE=2P
+ MJE=500M CJC=15.6333P VJC=700.001M MJC=499.871M TF=601.795P XTF=163.532M
+ VTF=9.93432 ITF=9.63234M TR=10N )


.MODEL Q2SA1837 PNP
+ IS=1.7671E-12
+ BF=160.54
+ VAF=500
+ IKF=1.7316
+ ISE=38.620E-12
+ NE=1.7292
+ BR=3.9832
+ VAR=100
+ IKR=1.6615
+ ISC=108.00E-12
+ NC=1.4213
+ NK=.83004
+ RB=1.0611
+ RC=.23351
+ CJE=2.0000E-12
+ CJC=72.874E-12
+ MJC=.33333
+ TF=1.6596E-9
+ XTF=.61407
+ VTF=36.102
+ ITF=.70845
+ TR=10.000E-9

.MODEL Q2SC4793 NPN
+ IS=1.8747E-12
+ BF=109.30
+ VAF=500
+ IKF=4.9998
+ ISE=4.0382E-12
+ NE=1.5341
+ BR=.35724
+ VAR=100
+ IKR=1.1273
+ ISC=14.741E-12
+ NC=2.2201
+ NK=.7652
+ RB=1.5379
+ RC=.19892
+ CJE=2.0000E-12
+ CJC=48.582E-12
+ MJC=.33333
+ TF=1.7700E-9
+ XTF=.61
+ VTF=30
+ ITF=.7
+ TR=10.000E-9

.MODEL Q2SC5198 NPN(IS=10.000E-15 BF=105 VAF=100 IKF=10.000E-3 XTB=1.5 BR=.1001 VAR=100 IKR=10.000E-3 ISC=10.000E-15 CJE=2.0000E-12 CJC=412.95E-12 MJC=.33333 TF=608.00E-12 XTF=10 VTF=10 ITF=1 mfg=Toshiba)

.model Q2sb772 PNP(Is=282f Xti=3 Eg=1.11 Vaf=100 Bf=213.6 Ise=1.659p Ne=1.787 Ikf=6.472 Nk=.7894 Xtb=1.5 Var=100 Br=39.18 Isc=12.72p Nc=1.637 Ikr=.1652 Rc=64.89m Cjc=145.6p Mjc=.2985 Vjc=.3905 Fc=.5 Cje=255.3p Mje=.5064 Vje=1.615 Tr=10n Tf=1.927n Itf=6.218 Xtf=0 Vtf=10)

.model Q2sd882 NPN(Is=282f Xti=3 Eg=1.11 Vaf=100 Bf=200.7 Ise=288.7f Ne=1.368 Ikf=20 Nk=1.235 Xtb=1.5 Var=100 Br=52.37 Isc=8.515p Nc=1.527 Ikr=.2617 Rc=15.88m Cjc=166.3p Mjc=.4069 Vjc=.3905 Fc=.5 Cje=291.8p Mje=.3606 Vje=.75 Tr=10n Tf=1.551n Itf=1 Xtf=0 Vtf=10)

