* Product Name: FQA36P15     150V P-Channel MOSFET and TO-3P
*---------------------------------------------------------------------------------

.SUBCKT FQA36P15 20 10 30
Rg 10 1  0.04
M1 2 1 3 3 DMOS  L=1u  W=1u
.MODEL DMOS PMOS(VTO={-3.6*{-0.00088*TEMP+1.022}} KP={19.5*{-0.00028*TEMP+1.007}}
+ THETA=0.0424  VMAX=1.5E5   LEVEL=3)
Cgs 1 3 2440p
Rd 20 4 0.06  TC=0.0085
Dds 4 3 DDS
.MODEL DDS D(BV={150*{0.00075*TEMP+0.98125}}  M=0.48   CJO=600p   VJ=0.61)
Dbody 20 3 DBODY
.MODEL DBODY D(IS=8.5E-12  N=1.0  RS=0.013  EG=1.19  TT=198n)
Ra 4 2  0.0152  TC=0.0085
Rs 3 5  0.0012
Ls 5 30 1n
M2 1 8 6 6 INTER
E2 8 6 4 1 2
.MODEL INTER PMOS (VTO=0 KP=10 LEVEL=1)
Cgdmax 7 4 3300p
Rcgd 7 4 1E7
Dgd  4 6 DGD
Rdgd 4 6 1E7
.MODEL DGD D(M=0.62 CJO=3300p VJ=0.52)
M3 7 9 1 1 INTER
E3 9 1 4 1 -2
.ENDS


*$
.model Q2SC1844 NPN(Is=6.506f Xti=3 Eg=1.11 Vaf=100 Bf=412.8 Ise=6.506f
+               Ne=1.511 Ikf=.7 Nk=.5878 Xtb=1.5 Var=100 Br=10.16 Isc=6.506f
+               Nc=1.612 Ikr=.7314 Rc=1.075 Cjc=10.06p Mjc=.3516 Vjc=1.286
+               Fc=.5 Cje=5p Mje=.3333 Vje=.75 Tr=10n Tf=1n Itf=1 Xtf=0 Vtf=10)
*$
*
.SUBCKT BC327 1 2 3
* 
* housing parasitics
LB 2 22 1.2E-009 
LE 1 33 2.3E-009 
LC 3 11 1.7E-009 
CBCG 22 11 3.53E-013 
CBEG 22 33 1.81E-013 
CCEG 11 33 2.37E-013
* 
Q1 11 22 33 BC327 
*
.MODEL BC327 PNP
+     IS=1.08E-13
+     NF=0.99
+     ISE=2.713E-14
+     NE=1.4
+     BF=385.7
+     IKF=0.3603
+     VAF=31.29
+     NR=0.9849
+     ISC=5.062E-13
+     NC=1.295
+     BR=20.57
+     IKR=0.054
+     VAR=11.62
+     RB=1
+     IRB=1E-06
+     RBM=0.5
+     RE=0.1415
+     RC=0.2623
+     XTB=0
+     EG=1.11
+     XTI=3
+     CJE=5.114E-11
+     VJE=0.8911
+     MJE=0.4417
+     TF=7.359E-10
+     XTF=1.859
+     VTF=3.813
+     ITF=0.4393
+     PTF=0
+     CJC=2.656E-11
+     VJC=0.62
+     MJC=0.4836
+     XCJC=0.459
+     TR=5.00E-08
+     CJS=0
+     VJS=0.75
+     MJS=0.333
+     FC=0.99
.ENDS
*


.SUBCKT irfp450 1 2 3
**************************************
*      Model Generated by MODPEX     *
*Copyright(c) Symmetry Design Systems*
*         All Rights Reserved        *
*    UNPUBLISHED LICENSED SOFTWARE   *
*   Contains Proprietary Information *
*      Which is The Property of      *
*     SYMMETRY OR ITS LICENSORS      *
*Commercial Use or Resale Restricted *
*   by Symmetry License Agreement    *
**************************************
* Model generated on May  9, 97
* MODEL FORMAT: SPICE3
* Symmetry POWER MOS Model (Version 1.0)
* External Node Designations
* Node 1 -> Drain
* Node 2 -> Gate
* Node 3 -> Source
M1 9 7 8 8 MM L=100u W=100u
* Default values used in MM:
* The voltage-dependent capacitances are
* not included. Other default values are:
*   RS=0 RD=0 LD=0 CBD=0 CBS=0 CGBO=0
.MODEL MM NMOS LEVEL=1 IS=1e-32
+VTO=3.94179 LAMBDA=0.0307503 KP=16.5085
+CGSO=2.39257e-05 CGDO=1e-11
RS 8 3 0.0455396
D1 3 1 MD
.MODEL MD D IS=2.41146e-08 RS=0.0112778 N=1.5 BV=500
+IBV=0.00025 EG=1 XTI=1.00001 TT=1e-07
+CJO=2.3701e-09 VJ=3.618 M=0.9 FC=0.1
RDS 3 1 2e+07
RD 9 1 0.246212
RG 2 7 2.73829
D2 4 5 MD1
* Default values used in MD1:
*   RS=0 EG=1.11 XTI=3.0 TT=0
*   BV=infinite IBV=1mA
.MODEL MD1 D IS=1e-32 N=50
+CJO=4.70723e-09 VJ=1.38588 M=0.9 FC=1e-08
D3 0 5 MD2
* Default values used in MD2:
*   EG=1.11 XTI=3.0 TT=0 CJO=0
*   BV=infinite IBV=1mA
.MODEL MD2 D IS=1e-10 N=1 RS=2.99997e-06
RL 5 10 1
FI2 7 9 VFI2 -1
VFI2 4 0 0
EV16 10 0 9 7 1
CAP 11 10 4.70723e-09
FI1 7 9 VFI1 -1
VFI1 11 6 0
RCAP 6 10 1
D4 0 6 MD3
* Default values used in MD3:
*   EG=1.11 XTI=3.0 TT=0 CJO=0
*   RS=0 BV=infinite IBV=1mA
.MODEL MD3 D IS=1e-10 N=1
.ENDS irfp450


.model BC546A NPN(IS=1.533E-14 NF=1.002 ISE=7.932E-16 NE=1.436 BF=178.7 IKF=0.1216 VAF=69.7 NR=1.004 ISC=8.305E-14 NC=1.207 BR=8.628 IKR=0.1121 VAR=44.7 RB=1 IRB=1E-06 RBM=1 RE=0.6395 RC=0.6508 XTB=0 EG=1.11 XTI=3 CJE=1.61E-11 VJE=0.4209 MJE=0.3071 TF=4.995E-10 XTF=139 VTF=3.523 ITF=0.7021 PTF=0 CJC=4.388E-12 VJC=0.2 MJC=0.2793 XCJC=0.6193 TR=1E-32 CJS=0 VJS=0.75 MJS=0.333 FC=0.7762)


.model MJE350 PNP (IS=6.01619e-15 BF=157.387 NF=0.910131 VAF=23.273 IKF=0.0564808 ISE=4.48479e-12 NE=1.58557 BR=0.1 NR=1.03823 VAR=4.14543 IKR=0.0999978 ISC=1.00199e-13 NC=1.98851 RB=0.1 IRB=0.202965 RBM=0.1 RE=0.0710678 RC=0.355339 XTB=1.03638 XTI=3.8424 EG=1.206 CJE=1e-11 VJE=0.75 MJE=0.33 TF=1e-09 XTF=1 VTF=10 ITF=0.01 CJC=1e-11 VJC=0.75 MJC=0.33 XCJC=0.9 FC=0.5 CJS=0 VJS=0.75 MJS=0.5 TR=1e-07 PTF=0 KF=0 AF=1 Vceo=300 Icrating=500m mfg=Fairchild)


.model MJE340 NPN (IS=1.03431e-13 BF=172.974 NF=0.939811 VAF=27.3487 IKF=0.0260146 ISE=4.48447e-11 NE=1.61605 BR=16.6725 NR=0.796984 VAR=6.11596 IKR=0.10004 ISC=9.99914e-14 NC=1.99995 RB=1.47761 IRB=0.2 RBM=1.47761 RE=0.0001 RC=1.42228 XTB=2.70726 XTI=1 EG=1.206 CJE=1e-11 VJE=0.75 MJE=0.33 TF=1e-09 XTF=1 VTF=10 ITF=0.01 CJC=1e-11 VJC=0.75 MJC=0.33 XCJC=0.9 FC=0.5 CJS=0 VJS=0.75 MJS=0.5 TR=1e-07 PTF=0 KF=0 AF=1 Vceo=300 Icrating=500m mfg=Fairchild)
*




.MODEL BC556A PNP( 
+     IS=2.059E-14
+     NF=1.003
+     ISE=2.971E-15
+     NE=1.316
+     BF=227.3
+     IKF=0.08719
+     VAF=37.2
+     NR=1.007
+     ISC=1.339E-14
+     NC=1.15
+     BR=7.69
+     IKR=0.07646
+     VAR=11.42
+     RB=1
+     IRB=1E-06
+     RBM=1
+     RE=0.688
+     RC=0.6437
+     XTB=0
+     EG=1.11
+     XTI=3
+     CJE=1.4E-11
+     VJE=0.5912
+     MJE=0.3572
+     TF=7.046E-10
+     XTF=4.217
+     VTF=5.367
+     ITF=0.1947
+     PTF=0
+     CJC=1.113E-11
+     VJC=0.1
+     MJC=0.3414
+     XCJC=0.6288
+     TR=1E-32
+     CJS=0
+     VJS=0.75
+     MJS=0.333
+     FC=0.7947 )
*



.MODEL BAV21 d
+IS=7.294112E-09 RS=0.706 N=1.904350
+BV=250 IBV=100e-6 NBV=145.396351
+VJ=0.666016 M=0.084417
* Typical capacitance and reverse recovery time
* Trr = 26ns
+CJO=1.172445e-12 TT=36.5e-9
* Worst case capacitance and reverse recovery time
* Trr = 50 ns
*+CJO=5.0e-12 TT=68.1e-9


********************************
* Copyright:                   *
* Vishay Intertechnology, Inc. *
********************************
*  Model for Vishay diode BAV21WS-V.....
*  (T124D Chip)
*  VISHAY Semiconductor GmbH
*  Hartmut Harmel, 9 Aug 2006
*
.SUBCKT BAV21jjs 1 2
.MODEL PN D (
+ N=1.88
+ IS=4.35E-9
+ RS=0.391
+ trs1=0.0006
+ IKF=0.026
+ XTI=3
+ CJO=0.72p
+ VJ=0.55
+ M=.175
*+ VJ=0.75
*+ M=.0331
+ FC=0.5
+ TT=40E-9
+ BV=310
+ TBV1=0.0005
+ ISR=11e-9
+ NR=2.34
+ EG=1.12
+ IBV=0.001
+ KF=0
+ AF=1
+ IBV=1e-10)
L1 1 3 1.0n
L2 4 2 0.5n
D1 3 4 PN
.ENDS

.MODEL 2SA1837 PNP ( IS=2.39372559E-10 NF=1.304015937 BF=300 VAF=273 IKF=2.087725944 NK=0.94719458 ISE=1.46829699E-11 NE=1.526663542 BR=4 NR=1 VAR=20 IKR=1.05 RE=0 RB=1.8 RC=1.65 CJE=4.7407E-10 VJE=1.1 MJE=0.5 CJC=8.6700E-11 VJC=0.3 MJC=0.3 TF=1.642191E-09 FC=0.5 ITF=1.076260106 XTF=5.868994022 TR=1.38U)

.MODEL 2SC4793 NPN ( IS=1.8E-09 NF=1.43 BF=146.38 VAF=273 IKF=2.6 NK=0.95 ISE=6.286997E-10 NE=2.223629 BR=4 NR=1 VAR=20 IKR=1.05 RE=0 RB=1.7 RC=1.25 CJE=5.96964E-10 VJE=1.1 MJE=0.5 CJC=5.78E-11 VJC=0.3 MJC=0.3 TF=1.22678E-09 FC=0.5 ITF=10 XTF=99.52253015 TR=983N) 



* 2SA1381C - created March 11, 2011 copyright Cordell Audio
.MODEL 2SA1381C pnp
+IS=50e-15	BF=160 		VAF=328
+IKF=0.5	ISE=10e-15	NE=1.5		NF=1
+RB=17		RC=4.1		RE=0.05
+CJE=71e-12 	MJE=0.35	VJE=0.75
+CJC=8e-12	MJC=0.35	VJC=0.55	FC=0.5
+TF=900e-12 	XTF=10000 	VTF=35		ITF=20
+TR=1e-9	BR=1.6		IKR=0.09		
+EG=0.6 	XTB=0.9		XTI=3		NC=2
+ISC=3.2e-10	VAR=100		mfg=CA031111
*
*
* 2SC3503C - created March 11, 2011 copyright Cordell Audio
.MODEL 2SC3503C npn
+IS=40e-15	BF=170 		VAF=769
+IKF=0.08	ISE=200e-15	NE=1.5		NF=1.0
+RB=75		RC=1.5		RE=0.1
+CJE=95e-12 	MJE=0.35	VJE=0.75
+CJC=7e-12	MJC=0.35	VJC=0.75	FC=0.5
+TF=585e-12 	XTF=10000	VTF=35		ITF=20
+TR=10e-9	BR=0.6		IKR=0.05
+EG=0.75 	XTB=1.5		XTI=3		NC=1.5
+ISC=7e-15	NR=1.0		VAR=100		IRB=3e-6
+RBM=0.035	XCJC=1.0	mfg=CA031111
*


* 2SA1381D - created March 11, 2011 copyright Cordell Audio
.MODEL 2SA1381D pnp
+IS=50e-15	BF=120 		VAF=328
+IKF=0.5	ISE=10e-15	NE=1.5		NF=1
+RB=17		RC=4.1		RE=0.05
+CJE=71e-12 	MJE=0.35	VJE=0.75
+CJC=8e-12	MJC=0.35	VJC=0.55	FC=0.5
+TF=900e-12 	XTF=10000 	VTF=35		ITF=20
+TR=1e-9	BR=1.6		IKR=0.09		
+EG=0.6 	XTB=0.9		XTI=3		NC=2
+ISC=3.2e-10	VAR=100		mfg=CA031111
*
*
* 2SC3503D - created March 11, 2011 copyright Cordell Audio
.MODEL 2SC3503D npn
+IS=40e-15	BF=120 		VAF=769
+IKF=0.08	ISE=200e-15	NE=1.5		NF=1.0
+RB=75		RC=1.5		RE=0.1
+CJE=95e-12 	MJE=0.35	VJE=0.75
+CJC=7e-12	MJC=0.35	VJC=0.75	FC=0.5
+TF=585e-12 	XTF=10000	VTF=35		ITF=20
+TR=10e-9	BR=0.6		IKR=0.05
+EG=0.75 	XTB=1.5		XTI=3		NC=1.5
+ISC=7e-15	NR=1.0		VAR=100		IRB=3e-6
+RBM=0.035	XCJC=1.0	mfg=CA031111
*


**************************************
*      Model Generated by MODPEX     *
*Copyright(c) Symmetry Design Systems*
*         All Rights Reserved        *
*    UNPUBLISHED LICENSED SOFTWARE   *
*   Contains Proprietary Information *
*      Which is The Property of      *
*     SYMMETRY OR ITS LICENSORS      *
*    Modeling services provided by   *
* Interface Technologies www.i-t.com *
**************************************
.MODEL 1n4003 d
+IS=1.22478e-08 RS=0.0414786 N=1.83369 EG=0.6
+XTI=0.05 BV=200 IBV=5e-08 CJO=1e-11
+VJ=0.7 M=0.5 FC=0.5 TT=1e-09
+KF=0 AF=1
* Model generated on October 12, 2003
* Model format: PSpice



**********************************
* Model created by               *
*   Uni.Dipl.-Ing. Arpad Buermen *
*   arpad.burmen@ieee.org        *
* Copyright:                     *
*   Thomatronik GmbH, Germany    *
*   info@thomatronik.de          *
**********************************
* November 2000
*   SPICE3
.model uf4002 d is = 8.03314E-007 n = 2.30554 rs = 0.0375715
+ eg = 1.11 xti = 3 tnom = 25
+ cjo = 2.92237E-011 vj = 0.858244 m = 0.338004 fc = 0.5
+ tt = 1.23315E-007 bv = 110 ibv = 0.01 af = 1 kf = 0


**************** Power Discrete MOSFET Electrical Circuit Model ****************
* Product Name: FQA27N25
* 150V N-Channel MOSFET and TO-3P
*-------------------------------------------------------------------------------

.SUBCKT FQA27N25 20 10 30
Rg 10 1 0.04
M1 2 1 3 3 DMOS L=1u W=1u
.MODEL DMOS NMOS(VTO={3.75*{-0.0008*TEMP+1.02}} KP={24*{-0.00018*TEMP+1.0045}}
+ THETA=0.0576  VMAX=1.0E5  LEVEL=3)
Cgs 1 3 1200p
Rd 20 4 0.044 TC=0.0085
Dds 3 4 DDS
.MODEL DDS D(BV={150*{0.0009*TEMP+0.9775}}  M=0.48   CJO=210p   VJ=0.60)
Dbody 3 20 DBODY
.MODEL DBODY D(IS=1.5E-12  N=1.00  RS=0.0064  EG=1.15  TT=100n)
Ra 4 2 0.013 TC=0.0085
Rs 3 5 0.0015
Ls 5 30 1n
M2 1 8 6 6 INTER
E2 8 6 4 1 2
.MODEL INTER NMOS (VTO=0 KP=10 LEVEL=1)
CGDMAX 7 4 1450p
Rcgd 7 4 1E7
Dgd 6 4 DGD
Rdgd 4 6 1E7
.MODEL DGD D(M=0.60 CJO=1450p VJ=0.62)
M3 7 9 1 1 INTER
E3 9 1 4 1 -2
.ENDS



**************** Power Discrete MOSFET Electrical Circuit Model ****************
* Product Name: FQA28N15
* 150V N-Channel MOSFET and TO-3P
*-------------------------------------------------------------------------------

.SUBCKT FQA28N15 20 10 30
Rg 10 1 0.04
M1 2 1 3 3 DMOS L=1u W=1u
.MODEL DMOS NMOS(VTO={3.75*{-0.0008*TEMP+1.02}} KP={24*{-0.00018*TEMP+1.0045}}
+ THETA=0.0576  VMAX=1.0E5  LEVEL=3)
Cgs 1 3 1200p
Rd 20 4 0.044 TC=0.0085
Dds 3 4 DDS
.MODEL DDS D(BV={150*{0.0009*TEMP+0.9775}}  M=0.48   CJO=210p   VJ=0.60)
Dbody 3 20 DBODY
.MODEL DBODY D(IS=1.5E-12  N=1.00  RS=0.0064  EG=1.15  TT=100n)
Ra 4 2 0.013 TC=0.0085
Rs 3 5 0.0015
Ls 5 30 1n
M2 1 8 6 6 INTER
E2 8 6 4 1 2
.MODEL INTER NMOS (VTO=0 KP=10 LEVEL=1)
CGDMAX 7 4 1450p
Rcgd 7 4 1E7
Dgd 6 4 DGD
Rdgd 4 6 1E7
.MODEL DGD D(M=0.60 CJO=1450p VJ=0.62)
M3 7 9 1 1 INTER
E3 9 1 4 1 -2
.ENDS

*--------------------------------------------------------------------------------
* Creation : Nov.-24-2003
* Fairchild Semiconductor


.MODEL KSC1845 npn IS=1.075431E-13 BF=600.7 NF=1 BR=13.565 NR=1 ISE=1.98107E-13 NE=2 ISC=1.8378E-11 NC=1.5 VAF=82.803 VAR=20.6691 IKF=0.596 IKR=0.0190546 RB=157 RBM=12.092 IRB=1.258925E-6 RE=1.5 RC=180.7 CJE=2.057447E-11 VJE=0.7300286 MJE=0.3619943 FC=0.5 CJC=4.525739p VJC=0.5 MJC=0.3659045 XTB=1.7281 EG=1.1809 XTI=3 TF=3.14E-11 mfg=Fairchild

.MODEL KSA1381 pnp IS=5.5544E-14 BF=148 BR=1.592 ISE=2.0546f NE=1.5 ISC=3.24807E-10 NC=2 VAF=580 VAR=100 IKF=0.2163 IKR=0.087544 RB=10.18 RE=0.0512 RC=4.072 CJE=9.572p VJE=0.748 MJE=0.371 FC=0.5 CJC=1.147p VJC=0.541 MJC=0.329 TF=1.0312E-09 XTB=0.907 EG=0.62 XTI=3

.MODEL KSC3503 NPN IS=2.0893E-14 BF=101.5 NF=1 BR=7.655 NR=1.007 ISE=4.3652E-14 NE=1.5 ISC=1.2598n NC=2 VAF=717.25 VAR=13.16 IKF=0.2512 IKR=0.0832 RB=2.98 RBM=0.001 IRB=0.001 RE=0.5305 RC=0.9 QCO=0.05 RCO=50.1187 VO=2.476 GAMMA=1.8231E-7 CJE=6.6039E-11 VJE=0.7017 MJE=0.3253 FC=0.5 CJC=6.6072p VJC=0.5 MJC=0.2439 XCJC=0.6488 XTB=1.4089 EG=1.2129 XTI=3 Vceo=300 Icrating=100m mfg=Fairchild

.MODEL 2N5551_Cordell npn IS=9f BF=125 VAF=667 IKF=0.09 ISE=1f NE=1.3 NF=1 RB=92 RC=1 RE=0.1 CJE=45p MJE=0.35 VJE=0.75 CJC=4.9p MJC=0.30 VJC=0.75 FC=0.5 TF=565p XTF=300 VTF=5 ITF=2.0 TR=1.2n BR=3 IKR=0 EG=1.1 XTB=1.5 XTI=3 NC=2 ISC=0 mfg=CA031011

.model 2N5551 ako:2N5551_Cordell

.MODEL 2N5401_Cordell pnp IS=25f BF=220 VAF=196 IKF=0.2 ISE=2f NE=1.4 NF=1 RB=60 RC=2 RE=0.1 CJE=35p MJE=0.40 VJE=0.75 CJC=15p MJC=0.55 VJC=0.75 FC=0.5 TF=800p XTF=60 VTF=0 ITF=4 TR=1.5n BR=4 IKR=0 EG=1.1 XTB=1.5 XTI=3 NC=2 ISC=0 mfg=CA031011

.model 2N5401 ako:2N5401_Cordell

.MODEL 2SC5200_k npn IS=300f BF=100 NF=1 BR=8.025 NR=1 ISE=200p IKF=18 NE=2.0 ISC=2.01764E-10 NC=1.5 VAF=400 VAR=100 IKR=1.39087 RB=1.1 RBM=0.00011 IRB=1.51189E-6 RE=0.0032 RC=0.0183 CJE=6.1n VJE=0.711 MJE=0.304 FC=0.5 CJC=380p VJC=0.84 MJC=0.25 TF=5n TR=3.342E-7 XTB=1.72 EG=0.78 XTI=3

.MODEL 2SA1943_k pnp IS=650f BF=100 NF=1 BR=8.805 NR=1 ISE=10p IKF=15 NE=2.0 ISC=2.01764E-10 NC=1.5 VAF=600 VAR=100 IKR=1.39087 RB=1.1 RBM=0.00011 IRB=1.51189n RE=0.0061 RC=0.0103 CJE=5.26n VJE=0.711 MJE=0.304 FC=0.5 CJC=750p VJC=0.84 MJC=0.25 TF=5n TR=3.342E-7 XTB=2.28 EG=0.81 XTI=3

.MODEL BD139_Cordell npn IS=150f BF=260 VAF=99 IKF=1.2 ISE=70f NE=1.2 NF=1.0 RB=5 RC=0.01 RE=0.08 CJE=293p MJE=0.33 VJE=0.67 CJC=49p MJC=0.39 VJC=0.52 FC=0.5 TF=585p XTF=10000 VTF=35 ITF=20 TR=10n BR=78 IKR=0.14 EG=1.21 XTB=1.14 XTI=3 NC=1.45 ISC=19p NR=1.0 VAR=7.5 IRB=0.03 RBM=0.001 XCJC=0.53 mfg=CA041311

.model BD139 ako:BD139_Cordell

.MODEL KSA992 pnp ( IS=5.7544E-14 BF=348.1 NF=1 BR=3.62 NR=0.95 ISE=5.7544f NE=1.5 ISC=1.8378E-14 NC=1 VAF=144 VAR=16.68 IKF=0.298 IKR=0.0525 RB=140 RBM=16.084 IRB=1.4125m RE=0.38 RC=0.47 CJE=2.3093E-11 VJE=0.855 MJE=0.4104 FC=0.5 CJC=8.9251p VJC=0.5 MJC=0.3497 XTB=1.2849 EG=1.1603 XTI=3 XCJC=0.3062 )


*
* BD140C - created April 13, 2011 copyright Cordell Audio
.MODEL BD140 pnp
+IS=120e-15	BF=113 		VAF=140
+IKF=1.5	ISE=1000e-15	NE=1.5		NF=1
+RB=5		RC=0.01		RE=0.1
+CJE=220e-12 	MJE=0.35	VJE=0.7
+CJC=68e-12	MJC=0.35	VJC=0.6		XCJC=0.5	FC=0.5
+TF=320e-12 	XTF=10000 	VTF=35		ITF=20
+TR=100e-9	BR=25		IKR=0.1		
+EG=1.2 	XTB=1.5		XTI=3		NC=1.4
+ISC=7e-12	NR=1.0		VAR=8		IRB=0.01	RBM=0.01	mfg=CA041311
*

*
* BD140C - created April 13, 2011 copyright Cordell Audio
.MODEL BD140_Cordell pnp
+IS=120e-15	BF=113 		VAF=140
+IKF=1.5	ISE=1000e-15	NE=1.5		NF=1
+RB=5		RC=0.01		RE=0.1
+CJE=220e-12 	MJE=0.35	VJE=0.7
+CJC=68e-12	MJC=0.35	VJC=0.6		XCJC=0.5	FC=0.5
+TF=320e-12 	XTF=10000 	VTF=35		ITF=20
+TR=100e-9	BR=25		IKR=0.1		
+EG=1.2 	XTB=1.5		XTI=3		NC=1.4
+ISC=7e-12	NR=1.0		VAR=8		IRB=0.01	RBM=0.01	mfg=CA041311
*


.MODEL MJL1302C pnp
+	IS=7e-12	BF=114 		VAF=550 	
+	IKF=30		ISE=1e-7	NE=5		NF=1.0
+	RB=3.3 		RC=0.1
+	CJE=16e-9 	MJE=0.45	VJE=0.8		RE=0.0
+	CJC=2.3e-9	MJC=0.4		VJC=0.3		FC=0.1
+	TF=3.0e-9 	XTF=1000 	VTF=2		ITF=150
+	TR=100e-9	BR=5 		VAR=4.3 	NR=1.1
+	EG=1.1 		XCJC=1.0	XTB=0.1		XTI=1.0	
+	NC=4		ISC=0.3e-12	
+	IKR=4.5		CJS=0		VJS=0.75	MJS=0.5
+	PTF=0		KF=0		AF=1		Vceo=200
+	Icrating=15	mfg=CA041611 
*


.MODEL MJL3281C npn
+	IS=5e-12	BF=158 		VAF=1000 	
+	IKF=50		ISE=20e-12	NE=1.5		NF=1.0
+	RB=3.0 		RC=0.1
+	CJE=11e-9 	MJE=0.35	VJE=0.5		RE=0.0
+	CJC=1.2e-9	MJC=0.5		VJC=0.6		FC=0.1
+	TF=2.7e-9 	XTF=7500	VTF=3		ITF=750
+	TR=100e-9	BR=5 		VAR=4.3 	NR=1.1
+	EG=1.1 		XCJC=1.0	XTB=0.12	XTI=1.0	
+	NC=4		ISC=0.3e-12	
+	IKR=4.4		CJS=0		VJS=0.75	MJS=0.5
+	PTF=0		KF=0		AF=1		Vceo=200
+	Icrating=15	mfg=CA041611 




.model BC556B PNP(IS=3.83E-14 NF=1.008 ISE=1.22E-14 NE=1.528 BF=344.4 IKF=0.08039 VAF=21.11 NR=1.005 ISC=2.85E-13 NC=1.28 BR=14.84 IKR=0.047 VAR=32.02 RB=1 IRB=1.00E-06 RBM=1 RE=0.6202 RC=0.5713 XTB=0 EG=1.11 XTI=3 CJE=1.23E-11 VJE=0.6106 MJE=0.378 TF=5.60E-10 XTF=3.414 VTF=5.23 ITF=0.1483 PTF=0 CJC=1.08E-11 VJC=0.1022 MJC=0.3563 XCJC=0.6288 TR=1.00E-32 CJS=0 VJS=0.75 MJS=0.333 FC=0.8027 Vceo=65 Icrating=100m mfg=Philips)




.MODEL BC550C npn
+IS=45e-15	BF=689 		VAF=162
+IKF=0.09	ISE=4600e-15	NE=2		NF=0.9965
+RB=167 	RC=1		RE=0.04
+CJE=18.7e-12 	MJE=0.35	VJE=0.75
+CJC=6.2e-12	MJC=0.25	VJC=0.4		FC=0.5
+TF=595e-12 	XTF=10 		VTF=10		ITF=1
+TR=10e-9	BR=12.2		IKR=0.34
+EG=1.2 	XTB=1.65	XTI=3		NC=0.996
+NR=1.0		VAR=120		IRB=7e-5	RBM=1.1
+XCJC=0.6	
+ISC=5e-15	mfg=CA030111


.MODEL BC560C pnp
+IS=60e-15	BF=900 		VAF=160
+IKF=0.10	ISE=70e-15	NE=1.42		NF=1
+RB=170		RC=1.0		RE=0.05
+CJE=19e-12 	MJE=0.3		VJE=0.75
+CJC=3.9e-12	MJC=0.3		VJC=0.75	FC=0.5
+TF=600e-12 	XTF=7 		VTF=4		ITF=0.45
+TR=10e-9	BR=3		IKR=0
+EG=1.1 	XTB=1.5		XTI=3		NC=2
+ISC=0		mfg=CA030211





.model BC546B NPN(IS=2.39E-14 NF=1.008 ISE=3.55E-15 NE=1.541 BF=294.3 IKF=0.1357 VAF=63.2 NR=1.004 ISC=6.27E-14 NC=1.243 BR=7.946 IKR=0.1144 VAR=25.9 RB=1 IRB=1.00E-06 RBM=1 RE=0.4683 RC=0.85 XTB=0 EG=1.11 XTI=3 CJE=1.36E-11 VJE=0.65 MJE=0.3279 TF=4.39E-10 XTF=120 VTF=2.643 ITF=0.7495 PTF=0 CJC=3.73E-12 VJC=0.3997 MJC=0.2955 XCJC=0.6193 TR=1.00E-32 CJS=0 VJS=0.75 MJS=0.333 FC=0.9579 Vceo=65 Icrating=100m mfg=Philips)

***** .model MPSA43 NPN(Is=34.9f Xti=3 Eg=1.11 Vaf=100 Bf=2.65K Ne=1.708 Ise=16.32p Ikf=23.79m Xtb=1.5 Br=9.769 Nc=2 Isc=0 Ikr=0 Rc=7 Cjc=14.23p Mjc=.5489 Vjc=.75 Fc=.5 Cje=49.62p Mje=.4136 Vje=.75 Tr=934.3p Tf=1.69n Itf=5 Vtf=20 Xtf=150 Rb=10)

.MODEL MPSA43 NPN(IS=1.59E-13 ISE=3.62E-16 ISC=9.06E-11 XTI=3.00 BF=7.04E1 BR=1.76E1 IKF=1.00E1 IKR=1.00 XTB=1.5 VAF=4.51E1 VAR=9.11E1 VJE=3.00E-1 VJC=4.64E-1 RE=4.19E-1 RC=4.11E-1 RB=3.23E1 RBM=7.75E-2 IRB=1.30m CJE=1.31E-10 CJC=1.56E-11 .00 FC=5.00E-1 NF=1.03 NR=1.11 NE=1.21 NC=1.47 MJE=4.02E-1 MJC=5.80E-1 TF=1.73n TR=934.3p ITF=1.33 VTF=9.99E5 XTF=1.00E2 EG=1.11 VCEO=200 ICRATING=500m MFG=SIEMENS"

.model MPSA93 PNP(Is=218.9f Xti=3 Eg=1.11 Vaf=100 Bf=99 Ne=1.307 Ise=218.9f Ikf=.2016 Xtb=1.5 Br=24.67 Nc=2 Isc=0 Ikr=0 Rc=7 Cjc=19.88p Mjc=.4876 Vjc=.75 Fc=.5 Cje=81.49p Mje=.3493 Vje=.75 Tr=516.9p Tf=1.395n Itf=1.5 Vtf=22 Xtf=270 Rb=10)

.model 2N5550 NPN(Is=2.511f Xti=3 Eg=1.11 Vaf=100 Bf=213.4 Ne=1.241 Ise=2.511f Ikf=.3495 Xtb=1.5 Br=3.24 Nc=2 Isc=0 Ikr=0 Rc=1 Cjc=4.883p Mjc=.3047 Vjc=.75 Fc=.5 Cje=18.79p Mje=.3416 Vje=.75 Tr=1.212n Tf=560.1p Itf=50m Vtf=5 Xtf=8 Rb=10 Vceo=150 Icrating=600m mfg=Fairchild)

* .model 2N5401 PNP(Is=21.48f Xti=3 Eg=1.11 Vaf=100 Bf=132.1 Ne=1.375 Ise=21.48f Ikf=.1848 Xtb=1.5 Br=3.661 Nc=2 Isc=0 Ikr=0 Rc=1.6 Cjc=17.63p Mjc=.5312 Vjc=.75 Fc=.5 Cje=73.39p Mje=.3777 Vje=.75 Tr=1.476n Tf=641.9p Itf=0 Vtf=0 Xtf=0 Rb=10 Vceo=150 Icrating=600m mfg=Fairchild)

.MODEL Q2SC4793_x NPN ( IS=1.8E-09 NF=1.43 BF=146.38 VAF=273 IKF=2.6 NK=0.95 ISE=6.286997E-10 NE=2.223629 BR=4 NR=1 VAR=20 IKR=1.05 RE=0 RB=1.7 RC=1.25 CJE=5.96964E-10 VJE=1.1 MJE=0.5 CJC=5.78E-11 VJC=0.3 MJC=0.3 TF=1.22678E-09 FC=0.5 ITF=10 XTF=99.52253015 TR=983N)

.model MPSA42 NPN(Is=34.9f Xti=3 Eg=1.11 Vaf=100 Bf=2.65K Ne=1.708 Ise=16.32p Ikf=23.79m Xtb=1.5 Br=9.769 Nc=2 Isc=0 Ikr=0 Rc=7 Cjc=14.23p Mjc=.5489 Vjc=.75 Fc=.5 Cje=49.62p Mje=.4136 Vje=.75 Tr=934.3p Tf=1.69n Itf=5 Vtf=20 Xtf=150 Rb=10)

.model J2N5565 NJF(Beta=9.109m Betatce=-.5 Rd=1 Rs=1 Lambda=7.5m Vto=-1.447 Vtotc=-2.5m Is=94.42f Isr=921.9f N=1 Nr=2 Xti=3 Alpha=88.38u Vk=171.6 Cgd=8.67p M=.4742 Pb=1 Fc=.5 Cgs=9.76p Kf=67.86E-18 Af=1)




.model irfp240cc VDMOS(nchan Vto=4.0 Kp=4.8 Lambda=0.0032 Rs=0.01 Rd=0.1 Rds=1e7 Cgdmax=2600p Cgdmin=10p a=0.35
+Cgs=1250p Cjo=3000p m=0.75 VJ=2.5 IS=4.0E-06 N=2.4 ksubthres=190m)


.model irfp9240cc VDMOS(pchan Vto=-3.76 Kp=9 Lambda=0.004 Rs=0.064 Rd=0.1 Rds=1e7 Cgdmax=1200p Cgdmin=15p a=0.26
+Cgs=1130p Cjo=2070p m=0.68 VJ=2.5 IS=4.0E-06 N=2.4 ksubthres=107m)


.model TTC004B_BJT NPN(
+ LEVEL = 1
+ TNOM = 25
+ IS = 1.374e-013
+ BF = 137.2
+ NF = 1
+ VAF = 11.95
+ IKF = 0.5057
+ ISE = 8.098e-013
+ NE = 1.8
+ BR = 35.11
+ NR = 1
+ VAR = 1000
+ IKR = 10
+ ISC = 1.916e-011
+ NC = 1.5
+ NK = 0.55
+ RE = 0.115
+ RB = 0.885
+ RC = 0.0709
+ CJE = 5.78E-011
+ VJE = 0.75
+ MJE = 0.33
+ CJC = 2.89E-011
+ VJC = 0.75
+ MJC = 0.33
+ FC = 0.5
+ TF = 1.545E-009
+ XTF = 1
+ VTF = 1
+ ITF = 1
+ PTF = 0
+ TR = 0
+ EG = 1.11
+ XTB = 1.4
+ XTI = 6.467)

.model TTC004B ako:TTC004B_BJT

.model Qmj21194 npn(
+IS=4.02325e-14 BF=10000 NF=1.1488 VAF=10000
+IKF=0.377331 ISE=2.16244e-09 NE=2.49213 BR=0.1
+NR=1.5 VAR=1.70851 IKR=3.77331 ISC=1.00031e-16
+NC=3.99945 RB=0.1 IRB=0.1 RBM=0.1
+RE=0.00775691 RC=0.0387846 XTB=0.1 XTI=1
+EG=1.05 CJE=1.07724e-08 VJE=0.975489 MJE=0.524369
+TF=1e-08 XTF=2.16157e+06 VTF=0.184568 ITF=5.56361
+CJC=2.68609e-10 VJC=1.64862 MJC=0.242322 XCJC=0.1
+FC=0.910137 CJS=0 VJS=0.75 MJS=0.5
+TR=1e-07 PTF=0 KF=0 AF=1)

.MODEL Qmjl21193 pnp
+IS=2.37302e-11 BF=92.8585 NF=0.85 VAF=1000
+IKF=7.81463 ISE=9.34142e-13 NE=1.83168 BR=1.39987
+NR=0.905395 VAR=421.163 IKR=1.8668 ISC=9.34142e-13
+NC=3.03125 RB=14.6266 IRB=0.1 RBM=0.149902
+RE=0.000682292 RC=0.146081 XTB=1.32633 XTI=1.05623
+EG=1.05 CJE=1.15773e-08 VJE=0.57352 MJE=0.417157
+TF=1e-08 XTF=1.946 VTF=17401.6 ITF=3.36265
+CJC=5e-10 VJC=0.95 MJC=0.23891 XCJC=0.999998
+FC=0.987529 CJS=0 VJS=0.75 MJS=0.5
+TR=1e-07 PTF=0 KF=0 AF=1
* Model generated on Jan 25, 2004
* Model format: PSpice



*
* MJL21193C - created November 22, 2010 copyright Cordell Audio
.MODEL mjl21193C pnp
+	IS=1.6e-12	BF=110 		VAF=300 	
+	IKF=4		ISE=5e-12	NE=1.5		NF=0.95
+	RB=2.0 		RBM=2.0		IRB=10	 	RC=0.06
+	CJE=13e-9 	MJE=0.35	VJE=0.5		RE=0.001
+	CJC=1.5e-9	MJC=0.5		VJC=0.6		FC=0.5
+	TF=24e-9 	XTF=1.0 	VTF=10		ITF=10
+	TR=100e-9	BR=5 		VAR=100 	NR=1.1
+	EG=1.1 		XCJC=0.96	XTB=0.1		XTI=1.0	
+	NC=4		ISC=0.3e-12	mfg=CA112210 
*

*
* MJL21194C - created November 22, 2010 copyright Cordell Audio
.MODEL mjl21194C npn
+	IS=4e-12	BF=70 		VAF=500 	
+	IKF=14		ISE=1.2e-9	NE=2.0		NF=1.01
+	RB=3.4 		RBM=0.1 	IRB=1.0 	RC=0.06
+	CJE=8e-9 	MJE=0.35	VJE=0.5		RE=0.01
+	CJC=1.2e-9	MJC=0.5		VJC=0.6		FC=0.5
+	TF=21e-9 	XTF=90 		VTF=10		ITF=100
+	TR=100e-9	BR=5 		VAR=100 	NR=1.1
+	EG=1.1 		XCJC=0.96	XTB=0.1		XTI=1.0	
+	NC=4		ISC=0.3e-12	mfg=CA112210 
*


**************************************
*      Model Generated by MODPEX     *
*Copyright(c) Symmetry Design Systems*
*         All Rights Reserved        *
*    UNPUBLISHED LICENSED SOFTWARE   *
*   Contains Proprietary Information *
*      Which is The Property of      *
*     SYMMETRY OR ITS LICENSORS      *
*Commercial Use or Resale Restricted *
*   by Symmetry License Agreement    *
**************************************
* Model generated on Sep 10, 03
* MODEL FORMAT: SPICE3
.MODEL mj21194 npn
+IS=4.02325e-14 BF=10000 NF=1.1488 VAF=10000
+IKF=0.377331 ISE=2.16244e-09 NE=2.49213 BR=0.1
+NR=1.5 VAR=1.70851 IKR=3.77331 ISC=1.00031e-16
+NC=3.99945 RB=0.1 IRB=0.1 RBM=0.1
+RE=0.00775691 RC=0.0387846 XTB=0.1 XTI=1
+EG=1.05 CJE=1.07724e-08 VJE=0.975489 MJE=0.524369
+TF=1e-08 XTF=2.16157e+06 VTF=0.184568 ITF=5.56361
+CJC=2.68609e-10 VJC=1.64862 MJC=0.242322 XCJC=0.1
+FC=0.910137 CJS=0 VJS=0.75 MJS=0.5
+TR=1e-07 PTF=0 KF=0 AF=1


.MODEL 2N3906 PNP(IS=4E-14 BF=400 VAF=50 IKF=0.02 ISE=7E-15 NE=1.16 
+ BR=7.5 RC=2.4 CJE=6.3E-12 VJE=0.75 TF=5E-10 CJC=5.8E-12 VJC=0.75 TR=2.3E-8 
+ VJS=0.75 XTB=1.5 KF=6E-16 )

.model 2N1613 NPN(Is=14.1f Xti=3 Eg=1.11 Vaf=100 Bf=88.85 Ne=1.5 Ise=0 
+ Ikf=.75 Xtb=1.5 Br=5.591 Nc=2 Isc=0 Ikr=0 Rc=.7 Cjc=15.69p 
+ Mjc=.3603 Vjc=.75 Fc=.5 Cje=55.06p Mje=.1553 Vje=.75 Tr=854.5p 
+ Tf=1.332n Itf=1.6 Vtf=5 Xtf=55 Rb=10)

.MODEL 2N3055_OLD NPN(IS=4.66E-12 BF=360 VAF=100 IKF=0.25 ISE=3.339E-11 
+ BR=2 ISC=5E-9 RB=3 IRB=0.001 RBM=0.4 RC=0.04 CJE=5.802E-10 VJE=1.2 
+ MJE=0.45 TF=8E-8 XTF=1 ITF=3 PTF=120 CJC=2.121E-10 MJC=0.4 TR=2.55E-6 
+ XTB=1 )

.model 2N3055 NPN(Is=974.4f Xti=3 Eg=1.11 Vaf=50 Bf=99.49 Ne=1.941
Ise=902.5p Ikf=4.029 Xtb=1.5 Br=2.949 Nc=2 Isc=0 Ikr=0 Rc=.1
Cjc=276p Vjc=.75 Mjc=.3333 Fc=.5 Cje=569.1p Vje=.75 Mje=.3333
Tr=971.7n Tf=39.11n Itf=20 Vtf=10 Xtf=2 Rb=.1 Vceo=60
Icrating=15 mfg=Texas)


.model irfp240C VDMOS(nchan Vto=4.0 Kp=4.8 Lambda=0.0032 Rs=0.01 Rd=0.1 Rds=1e7 Cgdmax=2600p Cgdmin=10p a=0.35 Cgs=1250p Cjo=3000p m=0.75 VJ=2.5 IS=4.0E-06 N=2.4)

.model irfp9240C VDMOS(pchan Vto=-3.76 Kp=9 Lambda=0.004 Rs=0.064 Rd=0.1 Rds=1e7 Cgdmax=1200p Cgdmin=15p a=0.26 Cgs=1130p Cjo=2070p m=0.68 VJ=2.5 IS=4.0E-06 N=2.4)

.model IXFN140N30P VDMOS(nchan Vto=4.03 Kp=4.15 Lambda=4.3m Rs=2.2m Rd=0.17 Rds=1e7
+ Cgdmax=4nF Cgdmin=50pF a=0.35 Cgs=13nF
+ Cjo=35nF m=0.75 VJ=2.5 IS=4.0E-06 N=2.4 ksubthres=.22) 







* PSpice Model Editor - Version 16.6.0

*$
**************** Power Discrete MOSFET Electrical Circuit Model *****************
** Product Name: FDA59N30
** 300V N-Channel UniFET
** Model Type: BSIM3V3
**-------------------------------------------------------------------------------
.SUBCKT FDA59N30 2 1 3    
*Nom Temp=25 deg C
Dbody 7 5    DbodyMOD
Dbreak 5 11  DbreakMOD
Ebreak 11 7 17 7 330
Lgate 1 9    1.658e-9
Ldrain 2 5   1.440e-9
Lsource 3 7  2.203e-9
RLgate 1 9   16.58
RLdrain 2 5  14.4
RLsource 3 7 22.03
Rgate 9 6    1.5
It 7 17      1
Rbreak 17 7  RbreakMOD 1
.MODEL RbreakMOD RES (TC1=1.08e-3 TC2=-1.36e-6)
.MODEL DbodyMOD D (IS=2.85e-12 N=1     RS=3.12e-3 TRS1=3.12e-3 TRS2=1.4e-6 
+ CJO=6.78e-9      M=0.685     VJ=0.52 TT=2.36e-7 XTI=3        EG=1.17)
.MODEL DbreakMOD D (RS=100e-3 TRS1=1e-3 TRS2=1.0e-6)
Rdrain 5 16 RdrainMOD 0.047
.MODEL RdrainMOD RES (TC1=8.95e-3 TC2=1.29e-5)
M_BSIM3 16 6 7 7 Bsim3 W=7.776 L=2.0e-6 NRS=1
.MODEL  Bsim3 NMOS (LEVEL=7 VERSION=3.1 MOBMOD=3 CAPMOD=2 PARAMCHK=1 NQSMOD=0
+ TOX=1100e-10   XJ=1.4e-6    NCH=1.3e17
+ U0=700         VSAT=2.5e5   DROUT=1.0    
+ DELTA=0.10     PSCBE2=0     RSH=5.09e-4
+ VTH0=4.55      VOFF=-0.1    NFACTOR=1.1
+ LINT=3.05e-7   DLC=3.05e-7
+ CGSO=1.2e-15   CGSL=0       CGDO=1.0e-15
+ CGDL=4.05e-10  CJ=0         CF=0   
+ CKAPPA=0.12    KT1=-1.78    KT2=0
+ UA1=3.2e-9     NJ=10)
.ENDS



**************************************
*      Model Generated by MODPEX     *
*Copyright(c) Symmetry Design Systems*
*         All Rights Reserved        *
*    UNPUBLISHED LICENSED SOFTWARE   *
*   Contains Proprietary Information *
*      Which is The Property of      *
*     SYMMETRY OR ITS LICENSORS      *
*    Modeling services provided by   *
* Interface Technologies www.i-t.com *
**************************************
.MODEL Qmje15033 pnp
+IS=7.51228e-10 BF=134.35 NF=1.25737 VAF=12.5778
+IKF=1.88497 ISE=7.74267e-12 NE=3.34528 BR=5.14173
+NR=1.47488 VAR=1.4505 IKR=7.47186 ISC=3.25e-13
+NC=4 RB=4.37743 IRB=0.1 RBM=0.1
+RE=0.000332989 RC=0.381218 XTB=0.223027 XTI=1
+EG=1.05 CJE=3.06005e-09 VJE=0.64838 MJE=0.352991
+TF=4.78203e-09 XTF=1.50001 VTF=1.00006 ITF=0.999988
+CJC=3.00101e-10 VJC=0.600019 MJC=0.409916 XCJC=0.8
+FC=0.534975 CJS=0 VJS=0.75 MJS=0.5
+TR=1e-07 PTF=0 KF=0 AF=1
* Model generated on Feb  1, 2004
* Model format: PSpice



**************************************
*      Model Generated by MODPEX     *
*Copyright(c) Symmetry Design Systems*
*         All Rights Reserved        *
*    UNPUBLISHED LICENSED SOFTWARE   *
*   Contains Proprietary Information *
*      Which is The Property of      *
*     SYMMETRY OR ITS LICENSORS      *
*    Modeling services provided by   *
* Interface Technologies www.i-t.com *
**************************************
.MODEL Qmje15032 npn
+IS=3.7344e-10 BF=86.8313 NF=1.23974 VAF=31.5491
+IKF=9.1678 ISE=9.2499e-12 NE=3.28127 BR=5.59346
+NR=1.33161 VAR=2.1791 IKR=5.15023 ISC=4e-13
+NC=4 RB=9.54492 IRB=0.1 RBM=0.1
+RE=0.000568481 RC=0.0931741 XTB=0.737036 XTI=1.04983
+EG=1.206 CJE=3.05969e-09 VJE=0.648491 MJE=0.352663
+TF=4.94819e-09 XTF=1.50001 VTF=1.0001 ITF=0.999982
+CJC=3.00108e-10 VJC=0.600021 MJC=0.40991 XCJC=0.8
+FC=0.534651 CJS=0 VJS=0.75 MJS=0.5
+TR=1e-07 PTF=0 KF=0 AF=1
* Model generated on Feb  1, 2004
* Model format: PSpice



*********************************************************************
*  (C)  Copyright  TOSHIBA CORPORATION  2016
*  Date                 :21/08/2016
*  File Name            :TTA004B.lib
*  Part Number          :TTA004B
*  Parameter Ver.       :Ver.2
*  Simulator            :PSpice
*  Model Call Name      :TTA004B
*  TNOM                 :25 degree
*  Pin Assign           :1=Collector 2=Base 3=Emitter
*********************************************************************
.SUBCKT TTA004B 1 2 3
Q1 1 2 3 3 TTA004B_BJT
.MODEL TTA004B_BJT PNP(
+ LEVEL = 1
+ TNOM = 25
+ IS = 7.5e-014
+ BF = 190
+ IKF = 0.47
+ ISE = 5e-011
+ NE = 2.4
+ NK = 0.63
+ XTB = 1
+ XTI = 2
+ TRC1 = 0.003
+ NF = 1
+ VAF = 6.8
+ VAR = 50
+ BR = 6
+ IKR = 5
+ ISC = 1.0e-21
+ NR = 1.015
+ NC = 1
+ RB = 4
+ RC = 0.125
+ RE = 0.05
+ CJC = 4.09E-011
+ MJC = 0.33
+ VJC = 0.75
+ CJE = 1e-11
+ MJE = 0.33
+ VJE = 0.75
+ EG = 1.11
+ TR = 1E-009
+ TF = 1.59E-009)
.ENDS


.MODEL TTA004B_BJT PNP(
+ LEVEL = 1
+ TNOM = 25
+ IS = 7.5e-014
+ BF = 190
+ IKF = 0.47
+ ISE = 5e-011
+ NE = 2.4
+ NK = 0.63
+ XTB = 1
+ XTI = 2
+ TRC1 = 0.003
+ NF = 1
+ VAF = 6.8
+ VAR = 50
+ BR = 6
+ IKR = 5
+ ISC = 1.0e-21
+ NR = 1.015
+ NC = 1
+ RB = 4